56
GO
C 0.0 0.0 0.0
C 1.225252741274224 -0.7074 0.0
C 2.450505482548448 0.0 0.0
C 3.675758223822672 -0.7074 0.0
C 4.901010965096896 0.0 0.0
C 6.12626370637112 -0.7074 0.0
C 7.351516447645344 0.0 0.0
C 8.576769188919569 -0.7074 0.0
C 9.802021930193792 0.0 0.0
C 0.0 1.4148 0.0
C 1.225252741274224 2.1222000000000003 0.0
C 2.450505482548448 1.4148 0.0
C 3.675758223822672 2.1222000000000003 0.0
C 4.901010965096896 1.4148 0.0
C 6.12626370637112 2.1222000000000003 0.0
C 7.351516447645344 1.4148 0.0
C 8.576769188919569 2.1222000000000003 0.0
C 9.802021930193792 1.4148 0.0
C 0.0 4.244400000000001 0.0
C 1.225252741274224 3.537000000000001 0.0
C 2.450505482548448 4.244400000000001 0.0
C 3.675758223822672 3.537000000000001 0.0
C 4.901010965096896 4.244400000000001 0.0
C 6.12626370637112 3.537000000000001 0.0
C 7.351516447645344 4.244400000000001 0.0
C 8.576769188919569 3.537000000000001 0.0
C 9.802021930193792 4.244400000000001 0.0
C 0.0 5.6592 0.0
C 1.225252741274224 6.3666 0.0
C 2.450505482548448 5.6592 0.0
C 3.675758223822672 6.3666 0.0
C 4.901010965096896 5.6592 0.0
C 6.12626370637112 6.3666 0.0
C 7.351516447645344 5.6592 0.0
C 8.576769188919569 6.3666 0.0
C 9.802021930193792 5.6592 0.0
H 1.225252741274224 -1.7844 0.0
O 3.675758223822672 -2.1074 0.0
O 6.12626370637112 -2.1074 0.0
H 8.576769188919569 -1.7844 0.0
H 1.225252741274224 7.4436 0.0
O 3.675758223822672 7.7666 0.0
H 6.12626370637112 7.4436 0.0
H 8.576769188919569 7.4436 0.0
H -0.9327093598758405 -0.5385 0.0
H -0.9327093598758405 1.9533 0.0
H 10.734731290069632 -0.5385 0.0
H 10.734731290069632 1.9533 0.0
H -0.9327093598758405 3.7059000000000006 0.0
H -0.9327093598758405 6.1977 0.0
O 11.014457495492007 3.5444000000000004 0.0
H 10.734731290069632 6.1977 0.0
H 3.675758223822672 -2.8074000000000003 -0.7
H 6.12626370637112 -2.8074000000000003 -0.7
H 3.675758223822672 8.4666 -0.7
H 11.620675278141114 3.1944000000000004 -0.7
