143
GO
C 0.0 0.0 0.0
C 1.225252741274224 -0.7074 0.0
C 2.450505482548448 0.0 0.0
C 3.675758223822672 -0.7074 0.0
C 4.901010965096896 0.0 0.0
C 6.12626370637112 -0.7074 0.0
C 7.351516447645344 0.0 0.0
C 8.576769188919569 -0.7074 0.0
C 9.802021930193792 0.0 0.0
C 11.027274671468016 -0.7074 0.0
C 12.25252741274224 0.0 0.0
C 13.477780154016463 -0.7074 0.0
C 14.703032895290686 0.0 0.0
C 0.0 1.4148 0.0
C 1.225252741274224 2.1222000000000003 0.0
C 2.450505482548448 1.4148 0.0
C 3.675758223822672 2.1222000000000003 0.0
C 4.901010965096896 1.4148 0.0
C 6.12626370637112 2.1222000000000003 0.0
C 7.351516447645344 1.4148 0.0
C 8.576769188919569 2.1222000000000003 0.0
C 9.802021930193792 1.4148 0.0
C 11.027274671468016 2.1222000000000003 0.0
C 12.25252741274224 1.4148 0.0
C 13.477780154016463 2.1222000000000003 0.0
C 14.703032895290686 1.4148 0.0
C 0.0 4.244400000000001 0.0
C 1.225252741274224 3.537000000000001 0.0
C 2.450505482548448 4.244400000000001 0.0
C 3.675758223822672 3.537000000000001 0.0
C 4.901010965096896 4.244400000000001 0.0
C 6.12626370637112 3.537000000000001 0.0
C 7.351516447645344 4.244400000000001 0.0
C 8.576769188919569 3.537000000000001 0.0
C 9.802021930193792 4.244400000000001 0.0
C 11.027274671468016 3.537000000000001 0.0
C 12.25252741274224 4.244400000000001 0.0
C 13.477780154016463 3.537000000000001 0.0
C 14.703032895290686 4.244400000000001 0.0
C 0.0 5.6592 0.0
C 1.225252741274224 6.3666 0.0
C 2.450505482548448 5.6592 0.0
C 3.675758223822672 6.3666 0.0
C 4.901010965096896 5.6592 0.0
C 6.12626370637112 6.3666 0.0
C 7.351516447645344 5.6592 0.0
C 8.576769188919569 6.3666 0.0
C 9.802021930193792 5.6592 0.0
C 11.027274671468016 6.3666 0.0
C 12.25252741274224 5.6592 0.0
C 13.477780154016463 6.3666 0.0
C 14.703032895290686 5.6592 0.0
C 0.0 8.488800000000001 0.0
C 1.225252741274224 7.781400000000001 0.0
C 2.450505482548448 8.488800000000001 0.0
C 3.675758223822672 7.781400000000001 0.0
C 4.901010965096896 8.488800000000001 0.0
C 6.12626370637112 7.781400000000001 0.0
C 7.351516447645344 8.488800000000001 0.0
C 8.576769188919569 7.781400000000001 0.0
C 9.802021930193792 8.488800000000001 0.0
C 11.027274671468016 7.781400000000001 0.0
C 12.25252741274224 8.488800000000001 0.0
C 13.477780154016463 7.781400000000001 0.0
C 14.703032895290686 8.488800000000001 0.0
C 0.0 9.9036 0.0
C 1.225252741274224 10.611 0.0
C 2.450505482548448 9.9036 0.0
C 3.675758223822672 10.611 0.0
C 4.901010965096896 9.9036 0.0
C 6.12626370637112 10.611 0.0
C 7.351516447645344 9.9036 0.0
C 8.576769188919569 10.611 0.0
C 9.802021930193792 9.9036 0.0
C 11.027274671468016 10.611 0.0
C 12.25252741274224 9.9036 0.0
C 13.477780154016463 10.611 0.0
C 14.703032895290686 9.9036 0.0
C 0.0 12.733200000000002 0.0
C 1.225252741274224 12.025800000000002 0.0
C 2.450505482548448 12.733200000000002 0.0
C 3.675758223822672 12.025800000000002 0.0
C 4.901010965096896 12.733200000000002 0.0
C 6.12626370637112 12.025800000000002 0.0
C 7.351516447645344 12.733200000000002 0.0
C 8.576769188919569 12.025800000000002 0.0
C 9.802021930193792 12.733200000000002 0.0
C 11.027274671468016 12.025800000000002 0.0
C 12.25252741274224 12.733200000000002 0.0
C 13.477780154016463 12.025800000000002 0.0
C 14.703032895290686 12.733200000000002 0.0
C 0.0 14.148 0.0
C 1.225252741274224 14.8554 0.0
C 2.450505482548448 14.148 0.0
C 3.675758223822672 14.8554 0.0
C 4.901010965096896 14.148 0.0
C 6.12626370637112 14.8554 0.0
C 7.351516447645344 14.148 0.0
C 8.576769188919569 14.8554 0.0
C 9.802021930193792 14.148 0.0
C 11.027274671468016 14.8554 0.0
C 12.25252741274224 14.148 0.0
C 13.477780154016463 14.8554 0.0
C 14.703032895290686 14.148 0.0
O 1.225252741274224 -2.1074 0.0
H 3.675758223822672 -1.7844 0.0
O 6.12626370637112 -2.1074 0.0
H 8.576769188919569 -1.7844 0.0
O 11.027274671468016 -2.1074 0.0
H 13.477780154016463 -1.7844 0.0
H 1.225252741274224 15.9324 0.0
H 3.675758223822672 15.9324 0.0
O 6.12626370637112 16.255399999999998 0.0
H 8.576769188919569 15.9324 0.0
O 11.027274671468016 16.255399999999998 0.0
H 13.477780154016463 15.9324 0.0
H -0.9327093598758405 -0.5385 0.0
O -1.2124355652982142 2.1148 0.0
O 15.915468460588901 -0.699999999999999 0.0
H 15.635742255166528 1.9533 0.0
H -0.9327093598758405 3.7059000000000006 0.0
H -0.9327093598758405 6.1977 0.0
H 15.635742255166528 3.7059000000000006 0.0
O 15.915468460588901 6.3591999999999995 0.0
H -0.9327093598758405 7.950300000000001 0.0
H -0.9327093598758405 10.4421 0.0
H 15.635742255166528 7.950300000000001 0.0
H 15.635742255166528 10.4421 0.0
O -1.2124355652982137 12.0332 0.0
O -1.2124355652982146 14.847999999999999 0.0
H 15.635742255166528 12.194700000000001 0.0
O 15.915468460588901 14.847999999999997 0.0
H 1.225252741274224 -2.8074000000000003 -0.7
H 6.12626370637112 -2.8074000000000003 -0.7
H 11.027274671468016 -2.8074000000000003 0.7
H 6.12626370637112 16.955399999999997 0.7
H 11.027274671468016 16.955399999999997 0.7
H -1.8186533479473213 2.4648 -0.7
H 16.52168624323801 -1.0499999999999985 -0.7
H 16.52168624323801 6.709199999999999 0.7
H -1.8186533479473206 11.683200000000001 0.7
H -1.818653347947322 15.197999999999999 -0.7
H 16.52168624323801 15.197999999999997 -0.7
